/*--------------------------------*- C++ -*----------------------------------*\
| =========                 |                                                 |
| \\      /  F ield         | OpenFOAM: The Open Source CFD Toolbox           |
|  \\    /   O peration     | Version:  v2106                                 |
|   \\  /    A nd           | Website:  www.openfoam.com                      |
|    \\/     M anipulation  |                                                 |
\*---------------------------------------------------------------------------*/
FoamFile
{
    version     2.0;
    format      ascii;
    arch        "LSB;label=32;scalar=64";
    class       polyBoundaryMesh;
    location    "constant/polyMesh";
    object      boundary;
}
// * * * * * * * * * * * * * * * * * * * * * * * * * * * * * * * * * * * * * //

4
(
    walls
    {
        type            wall;
        inGroups        1(wall);
        nFaces          8550;
        startFace       795650;
    }
    inlet
    {
        type            patch;
        nFaces          50;
        startFace       804200;
    }
    outlet
    {
        type            patch;
        nFaces          100;
        startFace       804250;
    }
    frontAndBack
    {
        type            empty;
        inGroups        1(empty);
        nFaces          800000;
        startFace       804350;
    }
)

// ************************************************************************* //
